&RUN
iexpnr     =  001
runtime    =  100
dtmax      =  1
ladaptivedt  =  .true.
lanisotrop = .true.
rkmethod = 2
field_load_chunk_size = 20
field_dump_path = "/home/lorenzolds/Desktop/phd/dales_stuff/utrecht_result_data/utrecht_ideal_save/completefielddump.nc"
sources_prefix = "/home/lorenzolds/Desktop/phd/dales_stuff/utrecht_result_data/tracer_profile"
outputfile_path = "../output/concentration_out.nc"
output_save_interval = 2
/
&IBM
lapplyibm = .true.
ibm_input_file = "/home/lorenzolds/Desktop/phd/dales_stuff/utrecht_result_data/utrecht_ideal_save/ibm.inp.001"
/
