&RUN
iexpnr     =  001
runtime    =  10
dtmax      =  2
ladaptivedt  =  .true.
lanisotrop = .true.
rkmethod = 4
field_load_chunk_size = 10
field_dump_path = "/mnt/c/Users/loren/Desktop/phdmdr/utrecht_result_data/utrecht_ideal_save/completefielddump.nc"
/
&IBM
libm = .true.
ibm_input_file = "somefile.inp"
/
