&RUN
runtime    =  500
dtmax      =  1
ladaptivedt  =  .true.
lanisotrop = .true.
rkmethod = 2
field_load_chunk_size = 14
field_dump_path = "/home/lorenzolds/Desktop/phd/dales_stuff/utrecht_result_data/northwind/fielddump_60s.nc"
sources_prefix = "/home/lorenzolds/Desktop/phd/dales_stuff/utrecht_result_data/northwind/tracer_inp_60s.nc"
outputfile_path = "../output/concentration_out_60s.nc"
output_save_interval = 10
/
&IBM
lapplyibm = .true.
ibm_input_file = "/home/lorenzolds/Desktop/phd/dales_stuff/utrecht_result_data/utrecht_ideal_save/ibm.inp.001"
/
