&RUN
iexpnr     =  001
runtime    =  25
dtmax      =  1
ladaptivedt  =  .true.
lanisotrop = .true.
integration_scheme = 1
field_load_chunk_size = 40
field_dump_path = "/mnt/c/Users/loren/Desktop/phdmdr/utrecht_result_data/utrecht_ideal_save/completefielddump.nc"
/
&IBM
libm = .true.
ibm_input_file = "somefile.inp"
/
